// $Id: R1_12_47_3.glm
// 12.47 kV feeder
//*********************************************

module editglm;
#set strictnames=FALSE
#set relax_naming_rules=1

clock {
	// timezone EST+5EDT;
     starttime '2000-01-01 9:00:00';
     stoptime '2000-01-01 10:00:00';
}


#set profiler=1
//*********************************************
// modules

// Add module generators for solar and inverter
module generators;

module residential;

module tape;
module powerflow{
	solver_method FBS;
	default_maximum_voltage_error 1e-9;
	line_limits FALSE;
};

module climate;
object climate {
    name "Spokane WA";
		tmyfile "WA-Spokane.tmy3";
		interpolate LINEAR;
}


//*********************************************
object regulator:222 {
     name R1-12-47-3_reg_1;
     from R1-12-47-3_node_53;
     to R1-12-47-3_meter_22;
     phases ABCN;
     configuration feeder_reg_cfg;
}

object regulator_configuration:223 {
     name feeder_reg_cfg;
     Control OUTPUT_VOLTAGE;
     band_center 7500.0;
     band_width 120;
     connect_type WYE_WYE;
     time_delay 30;
     raise_taps 16;
     lower_taps 16;
     regulation 0.10;
     tap_pos_A 0;
     tap_pos_B 0;
     tap_pos_C 0;
}

object fuse:208 {
     name R1-12-47-3_fuse_1;
     phases AN;
     from R1-12-47-3_node_19;
     to R1-12-47-3_node_20;
     mean_replacement_time 1000;
     current_limit 50000;// 10000;
     status CLOSED;
}

object fuse:209 {
     name R1-12-47-3_fuse_2;
     phases BCN;
     from R1-12-47-3_node_21;
     to R1-12-47-3_node_23;
     mean_replacement_time 1000;
     current_limit 50000;// 100000;
     status CLOSED;
}

object fuse:210 {
     name R1-12-47-3_fuse_3;
     phases AN;
     from R1-12-47-3_node_27;
     to R1-12-47-3_node_28;
     mean_replacement_time 1000;
     current_limit 50000;// 400000;
     status CLOSED;
}

object fuse:211 {
     name R1-12-47-3_fuse_4;
     phases AN;
     from R1-12-47-3_node_32;
     to R1-12-47-3_node_33;
     mean_replacement_time 1000;
     current_limit 50000;// 100000;
     status CLOSED;
}

object fuse:212 {
     name R1-12-47-3_fuse_5;
     phases ABCN;
     from R1-12-47-3_node_32;
     to R1-12-47-3_node_35;
     mean_replacement_time 1000;
     current_limit 50000;// 80000;
     status CLOSED;
}

object fuse:213 {
     name R1-12-47-3_fuse_6;
     phases BN;
     from R1-12-47-3_node_36;
     to R1-12-47-3_node_37;
     mean_replacement_time 1000;
     current_limit 50000;// 400000;
     status CLOSED;
}

object fuse:214 {
     name R1-12-47-3_fuse_7;
     phases BN;
     from R1-12-47-3_node_36;
     to R1-12-47-3_node_40;
     mean_replacement_time 1000;
     current_limit 50000;// 400000;
     status CLOSED;
}

object line_configuration:17 {
     conductor_A underground_line_conductor:2;
     conductor_B underground_line_conductor:2;
     conductor_C underground_line_conductor:2;
     conductor_N underground_line_conductor:2;
     spacing line_spacing:9;
}

object line_configuration:18 {
     conductor_A overhead_line_conductor:3;
     conductor_B overhead_line_conductor:3;
     conductor_C overhead_line_conductor:3;
     conductor_N overhead_line_conductor:3;
     spacing line_spacing:10;
}

object line_configuration:19 {
     conductor_A overhead_line_conductor:4;
     conductor_C overhead_line_conductor:4;
     conductor_N overhead_line_conductor:4;
     spacing line_spacing:11;
}

object line_configuration:20 {
     conductor_C overhead_line_conductor:5;
     conductor_N overhead_line_conductor:5;
     spacing line_spacing:12;
}

object line_configuration:21 {
     conductor_A overhead_line_conductor:4;
     conductor_B overhead_line_conductor:4;
     conductor_C overhead_line_conductor:4;
     conductor_N overhead_line_conductor:4;
     spacing line_spacing:10;
}

object line_configuration:22 {
     conductor_A overhead_line_conductor:5;
     conductor_C overhead_line_conductor:5;
     conductor_N overhead_line_conductor:5;
     spacing line_spacing:11;
}

object line_configuration:23 {
     conductor_C overhead_line_conductor:4;
     conductor_N overhead_line_conductor:4;
     spacing line_spacing:12;
}

object line_configuration:24 {
     conductor_A overhead_line_conductor:6;
     conductor_B overhead_line_conductor:6;
     conductor_C overhead_line_conductor:6;
     conductor_N overhead_line_conductor:6;
     spacing line_spacing:10;
}

object line_configuration:25 {
     conductor_A overhead_line_conductor:6;
     conductor_N overhead_line_conductor:6;
     spacing line_spacing:13;
}

object line_configuration:26 {
     conductor_A overhead_line_conductor:7;
     conductor_B overhead_line_conductor:7;
     conductor_C overhead_line_conductor:7;
     conductor_N overhead_line_conductor:7;
     spacing line_spacing:10;
}

object line_configuration:27 {
     conductor_A overhead_line_conductor:5;
     conductor_B overhead_line_conductor:5;
     conductor_C overhead_line_conductor:5;
     conductor_N overhead_line_conductor:5;
     spacing line_spacing:10;
}

object line_configuration:28 {
     conductor_B underground_line_conductor:8;
     conductor_C underground_line_conductor:8;
     conductor_N underground_line_conductor:8;
     spacing line_spacing:14;
}

object line_configuration:29 {
     conductor_B underground_line_conductor:8;
     conductor_N underground_line_conductor:8;
     spacing line_spacing:15;
}

object line_configuration:30 {
     conductor_B overhead_line_conductor:5;
     conductor_C overhead_line_conductor:5;
     conductor_N overhead_line_conductor:5;
     spacing line_spacing:16;
}

object line_configuration:31 {
     conductor_A overhead_line_conductor:4;
     conductor_N overhead_line_conductor:4;
     spacing line_spacing:13;
}

object line_configuration:32 {
     conductor_A overhead_line_conductor:5;
     conductor_N overhead_line_conductor:5;
     spacing line_spacing:13;
}

object line_configuration:33 {
     conductor_A underground_line_conductor:8;
     conductor_B underground_line_conductor:8;
     conductor_C underground_line_conductor:8;
     conductor_N underground_line_conductor:8;
     spacing line_spacing:9;
}


object line_spacing:9 {
     distance_AB 0.0 in;
     distance_BC 0.0 in;
     distance_AC 0.0 in;
     distance_AN 0.0 in;
     distance_BN 0.0 in;
     distance_CN 0.0 in;
}

object line_spacing:10 {
     distance_AB 57.6 in;
     distance_BC 57.6 in;
     distance_AC 57.6 in;
     distance_AN 84.0 in;
     distance_BN 84.0 in;
     distance_CN 84.0 in;
}

object line_spacing:11 {
     distance_AC 57.6 in;
     distance_AN 84.0 in;
     distance_CN 84.0 in;
}

object line_spacing:12 {
     distance_CN 84.0 in;
}

object line_spacing:13 {
     distance_AN 84.0 in;
}

object line_spacing:14 {
     distance_BC 0.0 in;
     distance_BN 0.0 in;
     distance_CN 0.0 in;
}

object line_spacing:15 {
     distance_BN 0.0 in;
}

object line_spacing:16 {
     distance_BC 57.6 in;
     distance_BN 84.0 in;
     distance_CN 84.0 in;
}


// Load 1
object load:86 {
     name R1-12-47-3_load_1;
     parent R1-12-47-3_meter_1;
     phases CN;
     voltage_C -3600+6235j;
     constant_power_C 54848.3315+1161.1672j;
     nominal_voltage 480;
     load_class C;
}

// Distributed generation connection of load 1
// Solar connection 1

object overhead_line {
    name line_solar1;
		from R1-12-47-3_meter_1;
		to meter_solar1;
		phases CN;
		length 10;
		configuration line_configuration:20;
}

object meter {
    name meter_solar1;
		phases CN;
		nominal_voltage 480;
}

object inverter {
    name solar_inv1;
		phases CN;
		parent meter_solar1;
		generator_status ONLINE;
	  inverter_type FOUR_QUADRANT;
		four_quadrant_control_mode CONSTANT_PF;
	  generator_mode SUPPLY_DRIVEN;
		inverter_efficiency .95;
		rated_power 30000;
}

object solar {
    name solar_1;
		phases CN;
		parent solar_inv1;
		generator_status ONLINE;
		generator_mode SUPPLY_DRIVEN;
		panel_type SINGLE_CRYSTAL_SILICON;
		area 250 ft^2;
		tilt_angle 47.0;
		efficiency 0.135;
		orientation_azimuth 180;  // equator-facing (South)
		orientation FIXED_AXIS;
		SOLAR_TILT_MODEL SOLPOS;
		SOLAR_POWER_MODEL FLATPLATE;
}


// Battery connection 1

object overhead_line {
    name line_batt1;
		from R1-12-47-3_meter_1;
		to meter_batt1;
		phases CN;
		length 10;
		configuration line_configuration:20;
}

object meter {
    name meter_batt1;
		phases CN;
		nominal_voltage 480;
}

object inverter {
    name batt_inv1;
		phases CN;
		parent meter_batt1;
		generator_status ONLINE;
	  inverter_type FOUR_QUADRANT;
		four_quadrant_control_mode CONSTANT_PF;
		sense_object R1-12-47-3_meter_1;
		inverter_efficiency .95;
		rated_power 30000;
		charge_on_threshold 1.5 kW;
		charge_off_threshold 1.7 kW;
		discharge_off_threshold 2 kW;
		discharge_on_threshold 3 kW;
		max_discharge_rate 3 kW;
		max_charge_rate 3 kW;
		charge_lockout_time 1;
		discharge_lockout_time 1;
}

object battery {
    name batt_1;
		parent batt_inv1;
		use_internal_battery_model TRUE;
		battery_type LI_ION;
		rated_power 30000;
		nominal_voltage 480;
		battery_capacity 20 kWh;
		round_trip_efficiency 0.81;
		state_of_charge 0.5;
		generator_mode SUPPLY_DRIVEN;
}


// EV charger connection 1

object transformer_configuration {
	name CS_config;
	connect_type SINGLE_PHASE_CENTER_TAPPED;
	install_type POLETOP;
	powerC_rating 30;
	primary_voltage 480;
	secondary_voltage 120.000;
	impedance 0.006+0.0136j;
}

object transformer {
	name center_tap_1;
	phases CS;
	from R1-12-47-3_load_1;
	to trip_meter_ev1;
	configuration CS_config;
}

object triplex_meter {
    name trip_meter_ev1;
		phases CS;
		nominal_voltage 480;
}

object house {
      name house_1;
      parent trip_meter_ev1;
//  	floor_area 0;
//		heating_setpoint 0;
//		cooling_setpoint 0;
//		thermostat_deadband 0;
//		object ZIPload {
//			base_power 0;
//			power_fraction 0.2;
//			impedance_fraction 0.3;
//			current_fraction 0.5;
//			power_pf 0.9;
//			current_pf 0.6;
//			impedance_pf 0.8;
//		};
//		object waterheater {
//			location INSIDE;
//			water_demand 0;
//		};
		object evcharger {
	      charger_type HIGH;
		};
}


// Load 2
object load:87 {
     name R1-12-47-3_load_2;
     parent R1-12-47-3_meter_2;
     phases ABCN;
     voltage_A 7200+0.0j;
     voltage_B -3600-6235j;
     voltage_C -3600+6235j;
     constant_power_A 18397.9491+344.1439j;
     constant_power_B 5945.0578+187.089j;
     constant_power_C 16454.4994+348.3502j;
     nominal_voltage 480;
     load_class C;
}

// Distributed generation connection of load 2
// Solar connection 2

object overhead_line {
    name line_solar2;
		from R1-12-47-3_meter_2;
		to meter_solar2;
		phases ABCN;
		length 10;
		configuration line_configuration:18;
}

object meter {
    name meter_solar2;
		phases ABCN;
		nominal_voltage 480;
}

object inverter {
    name solar_inv2;
		phases ABCN;
		parent meter_solar2;
		generator_status ONLINE;
	  inverter_type FOUR_QUADRANT;
		four_quadrant_control_mode CONSTANT_PF;
	  generator_mode SUPPLY_DRIVEN;
		inverter_efficiency .95;
		rated_power 15000;
}

object solar {
    name solar_2;
		phases ABCN;
		parent solar_inv2;
		generator_status ONLINE;
		generator_mode SUPPLY_DRIVEN;
		panel_type SINGLE_CRYSTAL_SILICON;
		area 250 ft^2;
		tilt_angle 47.0;
		efficiency 0.135;
		orientation_azimuth 180;  // equator-facing (South)
		orientation FIXED_AXIS;
		SOLAR_TILT_MODEL SOLPOS;
		SOLAR_POWER_MODEL FLATPLATE;
}


// Battery connection 2

object overhead_line {
    name line_batt2;
		from R1-12-47-3_meter_2;
		to meter_batt2;
		phases ABCN;
		length 10;
		configuration line_configuration:18;
}

object meter {
    name meter_batt2;
		phases ABCN;
		nominal_voltage 480;
}

object inverter {
    name batt_inv2;
		phases ABCN;
		parent meter_batt2;
		generator_status ONLINE;
	  inverter_type FOUR_QUADRANT;
		four_quadrant_control_mode CONSTANT_PF;
		sense_object R1-12-47-3_meter_2;
		inverter_efficiency .95;
		rated_power 15000;
		charge_on_threshold 1.5 kW;
		charge_off_threshold 1.7 kW;
		discharge_off_threshold 2 kW;
		discharge_on_threshold 3 kW;
		max_discharge_rate 3 kW;
		max_charge_rate 3 kW;
		charge_lockout_time 1;
		discharge_lockout_time 1;
}

object battery {
    name batt_2;
		parent batt_inv2;
		use_internal_battery_model TRUE;
		battery_type LI_ION;
		rated_power 15000;
		nominal_voltage 480;
		battery_capacity 20 kWh;
		round_trip_efficiency 0.81;
		state_of_charge 0.5;
		generator_mode SUPPLY_DRIVEN;
}


// EV charger connection 2

object transformer {
	name center_tap_2;
	phases CS;
	from R1-12-47-3_load_2;
	to trip_meter_ev2;
	configuration CS_config;
}

object triplex_meter {
    name trip_meter_ev2;
		phases CS;
		nominal_voltage 480;
}

object house {
      name house_2;
      parent trip_meter_ev2;
//  	floor_area 0;
//		heating_setpoint 0;
//		cooling_setpoint 0;
//		thermostat_deadband 0;
//		object ZIPload {
//			base_power 0;
//			power_fraction 0.2;
//			impedance_fraction 0.3;
//			current_fraction 0.5;
//			power_pf 0.9;
//			current_pf 0.6;
//			impedance_pf 0.8;
//		};
//		object waterheater {
//			location INSIDE;
//			water_demand 0;
//		};
		object evcharger {
	      charger_type HIGH;
		};
}


// Load 3
object load:88 {
     name R1-12-47-3_load_3;
     parent R1-12-47-3_meter_3;
     phases ACN;
     voltage_A 7200+0.0j;
     voltage_C -3600+6235j;
     constant_power_A 0+0j;
     constant_power_C 27424.1657+580.5836j;
     nominal_voltage 480;
     load_class C;
}

// Distributed generation connection of load 3
// Solar connection 3

object overhead_line {
    name line_solar3;
		from R1-12-47-3_meter_3;
		to meter_solar3;
		phases CN;
		length 10;
		configuration line_configuration:20;
}

object meter {
    name meter_solar3;
		phases CN;
		nominal_voltage 480;
}

object inverter {
    name solar_inv3;
		phases CN;
		parent meter_solar3;
		generator_status ONLINE;
	  inverter_type FOUR_QUADRANT;
		four_quadrant_control_mode CONSTANT_PF;
	  generator_mode SUPPLY_DRIVEN;
		inverter_efficiency .95;
		rated_power 20000;
}

object solar {
    name solar_3;
		phases CN;
		parent solar_inv3;
		generator_status ONLINE;
		generator_mode SUPPLY_DRIVEN;
		panel_type SINGLE_CRYSTAL_SILICON;
		area 250 ft^2;
		tilt_angle 47.0;
		efficiency 0.135;
		orientation_azimuth 180;  // equator-facing (South)
		orientation FIXED_AXIS;
		SOLAR_TILT_MODEL SOLPOS;
		SOLAR_POWER_MODEL FLATPLATE;
}


// Battery connection 3

object overhead_line {
    name line_batt3;
		from R1-12-47-3_meter_3;
		to meter_batt3;
		phases CN;
		length 10;
		configuration line_configuration:20;
}

object meter {
    name meter_batt3;
		phases CN;
		nominal_voltage 480;
}

object inverter {
    name batt_inv3;
		phases CN;
		parent meter_batt3;
		generator_status ONLINE;
	  inverter_type FOUR_QUADRANT;
		four_quadrant_control_mode CONSTANT_PF;
		sense_object R1-12-47-3_meter_3;
		inverter_efficiency .95;
		rated_power 20000;
		charge_on_threshold 1.5 kW;
		charge_off_threshold 1.7 kW;
		discharge_off_threshold 2 kW;
		discharge_on_threshold 3 kW;
		max_discharge_rate 3 kW;
		max_charge_rate 3 kW;
		charge_lockout_time 1;
		discharge_lockout_time 1;
}

object battery {
    name batt_3;
		parent batt_inv3;
		use_internal_battery_model TRUE;
		battery_type LI_ION;
		rated_power 20000;
		nominal_voltage 480;
		battery_capacity 20 kWh;
		round_trip_efficiency 0.81;
		state_of_charge 0.5;
		generator_mode SUPPLY_DRIVEN;
}


// EV charger connection 3

object transformer {
	name center_tap_3;
	phases CS;
	from R1-12-47-3_load_3;
	to trip_meter_ev3;
	configuration CS_config;
}

object triplex_meter {
    name trip_meter_ev3;
		phases CS;
		nominal_voltage 480;
}

object house {
      name house_3;
      parent trip_meter_ev3;
//  	floor_area 0;
//		heating_setpoint 0;
//		cooling_setpoint 0;
//		thermostat_deadband 0;
//		object ZIPload {
//			base_power 0;
//			power_fraction 0.2;
//			impedance_fraction 0.3;
//			current_fraction 0.5;
//			power_pf 0.9;
//			current_pf 0.6;
//			impedance_pf 0.8;
//		};
//		object waterheater {
//			location INSIDE;
//			water_demand 0;
//		};
		object evcharger {
	      charger_type HIGH;
		};
}


// Load 4
object load:89 {
     name R1-12-47-3_load_4;
     parent R1-12-47-3_meter_4;
     phases CN;
     voltage_C -3600+6235j;
     constant_power_C 54848.3315+1161.1672j;
     nominal_voltage 480;
     load_class C;
}

// Distributed generation connection of load 4
// Solar connection 4

object overhead_line {
    name line_solar4;
		from R1-12-47-3_meter_4;
		to meter_solar4;
		phases CN;
		length 10;
		configuration line_configuration:20;
}

object meter {
    name meter_solar4;
		phases CN;
		nominal_voltage 480;
}

object inverter {
    name solar_inv4;
		phases CN;
		parent meter_solar4;
		generator_status ONLINE;
	  inverter_type FOUR_QUADRANT;
		four_quadrant_control_mode CONSTANT_PF;
	  generator_mode SUPPLY_DRIVEN;
		inverter_efficiency .95;
		rated_power 50000;
}

object solar {
    name solar_4;
		phases CN;
		parent solar_inv4;
		generator_status ONLINE;
		generator_mode SUPPLY_DRIVEN;
		panel_type SINGLE_CRYSTAL_SILICON;
		area 250 ft^2;
		tilt_angle 47.0;
		efficiency 0.135;
		orientation_azimuth 180;  // equator-facing (South)
		orientation FIXED_AXIS;
		SOLAR_TILT_MODEL SOLPOS;
		SOLAR_POWER_MODEL FLATPLATE;
}


// Battery connection 4

object overhead_line {
    name line_batt4;
		from R1-12-47-3_meter_4;
		to meter_batt4;
		phases CN;
		length 10;
		configuration line_configuration:20;
}

object meter {
    name meter_batt4;
		phases CN;
		nominal_voltage 480;
}

object inverter {
    name batt_inv4;
		phases CN;
		parent meter_batt4;
		generator_status ONLINE;
	  inverter_type FOUR_QUADRANT;
		four_quadrant_control_mode CONSTANT_PF;
		sense_object R1-12-47-3_meter_4;
		inverter_efficiency .95;
		rated_power 50000;
		charge_on_threshold 1.5 kW;
		charge_off_threshold 1.7 kW;
		discharge_off_threshold 2 kW;
		discharge_on_threshold 3 kW;
		max_discharge_rate 3 kW;
		max_charge_rate 3 kW;
		charge_lockout_time 1;
		discharge_lockout_time 1;
}

object battery {
    name batt_4;
		parent batt_inv4;
		use_internal_battery_model TRUE;
		battery_type LI_ION;
		rated_power 50000;
		nominal_voltage 480;
		battery_capacity 20 kWh;
		round_trip_efficiency 0.81;
		state_of_charge 0.5;
		generator_mode SUPPLY_DRIVEN;
}


// EV charger connection 4

object transformer {
	name center_tap_4;
	phases CS;
	from R1-12-47-3_load_4;
	to trip_meter_ev4;
	configuration CS_config;
}

object triplex_meter {
    name trip_meter_ev4;
		phases CS;
		nominal_voltage 480;
}

object house {
      name house_4;
      parent trip_meter_ev4;
//  	floor_area 0;
//		heating_setpoint 0;
//		cooling_setpoint 0;
//		thermostat_deadband 0;
//		object ZIPload {
//			base_power 0;
//			power_fraction 0.2;
//			impedance_fraction 0.3;
//			current_fraction 0.5;
//			power_pf 0.9;
//			current_pf 0.6;
//			impedance_pf 0.8;
//		};
//		object waterheater {
//			location INSIDE;
//			water_demand 0;
//		};
		object evcharger {
	      charger_type HIGH;
		};
}


// Load 5
object load:90 {
     name R1-12-47-3_load_5;
     parent R1-12-47-3_meter_5;
     phases CN;
     voltage_C -3600+6235j;
     constant_power_C 54848.3315+1161.1672j;
     nominal_voltage 480;
     load_class C;
}

// Distributed generation connection of load 5
// Solar connection 5

object overhead_line {
    name line_solar5;
		from R1-12-47-3_meter_5;
		to meter_solar5;
		phases CN;
		length 10;
		configuration line_configuration:20;
}

object meter {
    name meter_solar5;
		phases CN;
		nominal_voltage 480;
}

object inverter {
    name solar_inv5;
		phases CN;
		parent meter_solar5;
		generator_status ONLINE;
	  inverter_type FOUR_QUADRANT;
		four_quadrant_control_mode CONSTANT_PF;
	  generator_mode SUPPLY_DRIVEN;
		inverter_efficiency .95;
		rated_power 50000;
}

object solar {
    name solar_5;
		phases CN;
		parent solar_inv5;
		generator_status ONLINE;
		generator_mode SUPPLY_DRIVEN;
		panel_type SINGLE_CRYSTAL_SILICON;
		area 250 ft^2;
		tilt_angle 47.0;
		efficiency 0.135;
		orientation_azimuth 180;  // equator-facing (South)
		orientation FIXED_AXIS;
		SOLAR_TILT_MODEL SOLPOS;
		SOLAR_POWER_MODEL FLATPLATE;
}


// Battery connection 5

object overhead_line {
    name line_batt5;
		from R1-12-47-3_meter_5;
		to meter_batt5;
		phases CN;
		length 10;
		configuration line_configuration:20;
}

object meter {
    name meter_batt5;
		phases CN;
		nominal_voltage 480;
}

object inverter {
    name batt_inv5;
		phases CN;
		parent meter_batt5;
		generator_status ONLINE;
	  inverter_type FOUR_QUADRANT;
		four_quadrant_control_mode CONSTANT_PF;
		sense_object R1-12-47-3_meter_5;
		inverter_efficiency .95;
		rated_power 50000;
		charge_on_threshold 1.5 kW;
		charge_off_threshold 1.7 kW;
		discharge_off_threshold 2 kW;
		discharge_on_threshold 3 kW;
		max_discharge_rate 3 kW;
		max_charge_rate 3 kW;
		charge_lockout_time 1;
		discharge_lockout_time 1;
}

object battery {
    name batt_5;
		parent batt_inv5;
		use_internal_battery_model TRUE;
		battery_type LI_ION;
		rated_power 50000;
		nominal_voltage 480;
		battery_capacity 20 kWh;
		round_trip_efficiency 0.81;
		state_of_charge 0.5;
		generator_mode SUPPLY_DRIVEN;
}


// EV charger connection 5

object transformer {
	name center_tap_5;
	phases CS;
	from R1-12-47-3_load_5;
	to trip_meter_ev5;
	configuration CS_config;
}

object triplex_meter {
    name trip_meter_ev5;
		phases CS;
		nominal_voltage 480;
}

object house {
      name house_5;
      parent trip_meter_ev5;
//  	floor_area 0;
//		heating_setpoint 0;
//		cooling_setpoint 0;
//		thermostat_deadband 0;
//		object ZIPload {
//			base_power 0;
//			power_fraction 0.2;
//			impedance_fraction 0.3;
//			current_fraction 0.5;
//			power_pf 0.9;
//			current_pf 0.6;
//			impedance_pf 0.8;
//		};
//		object waterheater {
//			location INSIDE;
//			water_demand 0;
//		};
		object evcharger {
	      charger_type HIGH;
		};
}


// Load 6
object load:91 {
     name R1-12-47-3_load_6;
     parent R1-12-47-3_meter_6;
     phases ABCN;
     voltage_A 7200+0.0j;
     voltage_B -3600-6235j;
     voltage_C -3600+6235j;
     constant_power_A 0+0j;
     constant_power_B 0+0j;
     constant_power_C 82272.4972+1741.7508j;
     nominal_voltage 480;
     load_class C;
}

// Distributed generation connection of load 6
// Solar connection 6

object overhead_line {
    name line_solar6;
		from R1-12-47-3_meter_6;
		to meter_solar6;
		phases ABCN;
		length 10;
		configuration line_configuration:18;
}

object meter {
    name meter_solar6;
		phases ABCN;
		nominal_voltage 480;
}

object inverter {
    name solar_inv6;
		phases ABCN;
		parent meter_solar6;
		generator_status ONLINE;
	  inverter_type FOUR_QUADRANT;
		four_quadrant_control_mode CONSTANT_PF;
	  generator_mode SUPPLY_DRIVEN;
		inverter_efficiency .95;
		rated_power 80000;
}

object solar {
    name solar_6;
		phases ABCN;
		parent solar_inv6;
		generator_status ONLINE;
		generator_mode SUPPLY_DRIVEN;
		panel_type SINGLE_CRYSTAL_SILICON;
		area 250 ft^2;
		tilt_angle 47.0;
		efficiency 0.135;
		orientation_azimuth 180;  // equator-facing (South)
		orientation FIXED_AXIS;
		SOLAR_TILT_MODEL SOLPOS;
		SOLAR_POWER_MODEL FLATPLATE;
}


// Battery connection 6

object overhead_line {
    name line_batt6;
		from R1-12-47-3_meter_6;
		to meter_batt6;
		phases ABCN;
		length 10;
		configuration line_configuration:18;
}

object meter {
    name meter_batt6;
		phases ABCN;
		nominal_voltage 480;
}

object inverter {
    name batt_inv6;
		phases ABCN;
		parent meter_batt6;
		generator_status ONLINE;
	  inverter_type FOUR_QUADRANT;
		four_quadrant_control_mode CONSTANT_PF;
		sense_object R1-12-47-3_meter_6;
		inverter_efficiency .95;
		rated_power 80000;
		charge_on_threshold 1.5 kW;
		charge_off_threshold 1.7 kW;
		discharge_off_threshold 2 kW;
		discharge_on_threshold 3 kW;
		max_discharge_rate 3 kW;
		max_charge_rate 3 kW;
		charge_lockout_time 1;
		discharge_lockout_time 1;
}

object battery {
    name batt_6;
		parent batt_inv6;
		use_internal_battery_model TRUE;
		battery_type LI_ION;
		rated_power 80000;
		nominal_voltage 480;
		battery_capacity 20 kWh;
		round_trip_efficiency 0.81;
		state_of_charge 0.5;
		generator_mode SUPPLY_DRIVEN;
}


// EV charger connection 6

object transformer {
	name center_tap_6;
	phases CS;
	from R1-12-47-3_load_6;
	to trip_meter_ev6;
	configuration CS_config;
}

object triplex_meter {
    name trip_meter_ev6;
		phases CS;
		nominal_voltage 480;
}

object house {
      name house_6;
      parent trip_meter_ev6;
//  	floor_area 0;
//		heating_setpoint 0;
//		cooling_setpoint 0;
//		thermostat_deadband 0;
//		object ZIPload {
//			base_power 0;
//			power_fraction 0.2;
//			impedance_fraction 0.3;
//			current_fraction 0.5;
//			power_pf 0.9;
//			current_pf 0.6;
//			impedance_pf 0.8;
//		};
//		object waterheater {
//			location INSIDE;
//			water_demand 0;
//		};
		object evcharger {
	      charger_type HIGH;
		};
}


// Load 7
object load:92 {
     name R1-12-47-3_load_7;
     parent R1-12-47-3_meter_7;
     phases AN;
     voltage_A 7200+0.0j;
     constant_power_A 42928.5478+803.0025j;
     nominal_voltage 480;
     load_class C;
}

// Distributed generation connection of load 7
// Solar connection 7

object overhead_line {
    name line_solar7;
		from R1-12-47-3_meter_7;
		to meter_solar7;
		phases AN;
		length 10;
		configuration line_configuration:25;
}

object meter {
    name meter_solar7;
		phases AN;
		nominal_voltage 480;
}

object inverter {
    name solar_inv7;
		phases AN;
		parent meter_solar7;
		generator_status ONLINE;
	  inverter_type FOUR_QUADRANT;
		four_quadrant_control_mode CONSTANT_PF;
	  generator_mode SUPPLY_DRIVEN;
		inverter_efficiency .95;
		rated_power 40000;
}

object solar {
    name solar_7;
		phases AN;
		parent solar_inv7;
		generator_status ONLINE;
		generator_mode SUPPLY_DRIVEN;
		panel_type SINGLE_CRYSTAL_SILICON;
		area 250 ft^2;
		tilt_angle 47.0;
		efficiency 0.135;
		orientation_azimuth 180;  // equator-facing (South)
		orientation FIXED_AXIS;
		SOLAR_TILT_MODEL SOLPOS;
		SOLAR_POWER_MODEL FLATPLATE;
}


// Battery connection 7

object overhead_line {
    name line_batt7;
		from R1-12-47-3_meter_7;
		to meter_batt7;
		phases AN;
		length 10;
		configuration line_configuration:25;
}

object meter {
    name meter_batt7;
		phases AN;
		nominal_voltage 480;
}

object inverter {
    name batt_inv7;
		phases AN;
		parent meter_batt7;
		generator_status ONLINE;
	  inverter_type FOUR_QUADRANT;
		four_quadrant_control_mode CONSTANT_PF;
		sense_object R1-12-47-3_meter_7;
		inverter_efficiency .95;
		rated_power 40000;
		charge_on_threshold 1.5 kW;
		charge_off_threshold 1.7 kW;
		discharge_off_threshold 2 kW;
		discharge_on_threshold 3 kW;
		max_discharge_rate 3 kW;
		max_charge_rate 3 kW;
		charge_lockout_time 1;
		discharge_lockout_time 1;
}

object battery {
    name batt_7;
		parent batt_inv7;
		use_internal_battery_model TRUE;
		battery_type LI_ION;
		rated_power 40000;
		nominal_voltage 480;
		battery_capacity 20 kWh;
		round_trip_efficiency 0.81;
		state_of_charge 0.5;
		generator_mode SUPPLY_DRIVEN;
}


// EV charger connection 7

object transformer_configuration {
	name AS_config;
	connect_type SINGLE_PHASE_CENTER_TAPPED;
	install_type POLETOP;
	powerA_rating 30;
	primary_voltage 480;
	secondary_voltage 120.000;
	impedance 0.006+0.0136j;
}

object transformer {
	name center_tap_7;
	phases AS;
	from R1-12-47-3_load_7;
	to trip_meter_ev7;
	configuration AS_config;
}

object triplex_meter {
    name trip_meter_ev7;
		phases AS;
		nominal_voltage 480;
}

object house {
      name house_7;
      parent trip_meter_ev7;
//  	floor_area 0;
//		heating_setpoint 0;
//		cooling_setpoint 0;
//		thermostat_deadband 0;
//		object ZIPload {
//			base_power 0;
//			power_fraction 0.2;
//			impedance_fraction 0.3;
//			current_fraction 0.5;
//			power_pf 0.9;
//			current_pf 0.6;
//			impedance_pf 0.8;
//		};
//		object waterheater {
//			location INSIDE;
//			water_demand 0;
//		};
		object evcharger {
	      charger_type HIGH;
		};
}


// Load 8
object load:93 {
     name R1-12-47-3_load_8;
     parent R1-12-47-3_meter_8;
     phases ABCN;
     voltage_A 7200+0.0j;
     voltage_B -3600-6235j;
     voltage_C -3600+6235j;
     constant_power_A 30663.2485+573.5732j;
     constant_power_B 9908.4297+311.8149j;
     constant_power_C 27424.1657+580.5836j;
     nominal_voltage 480;
     load_class C;
}

// Distributed generation connection of load 8
// Solar connection 8

object overhead_line {
    name line_solar8;
		from R1-12-47-3_meter_8;
		to meter_solar8;
		phases ABCN;
		length 10;
		configuration line_configuration:18;
}

object meter {
    name meter_solar8;
		phases ABCN;